12
2x Ethlyene for FED-Comparison
C     0.670518    0.000000    0.000000
H     1.241372    0.927754    0.000000
H     1.241372   -0.927754    0.000000
C    -0.670518    0.000000    0.000000
H    -1.241372   -0.927754    0.000000
H    -1.241372    0.927754    0.000000
C     0.774635    0.000000    8.500000
H     1.323105    0.936763    8.500000
H     1.323105   -0.936763    8.500000
C    -0.774635    0.000000    8.500000
H    -1.323105   -0.936763    8.500000
H    -1.323105    0.936763    8.500000
